matpower-plain/case85.m
function mpc = case85
%CASE85  Power flow data for 85 bus distribution system from Das, et al
%   Please see CASEFORMAT for details on the case file format.
%
%   Data from ...
%       D. Das, D.P. Kothari, A. Kalam, Simple and efficient method for
%       load flow solution of radial distribution networks, International
%       Journal of Electrical Power & Energy Systems, Volume 17, Issue 5,
%       1995, Pages 335-346. doi: 10.1016/0142-0615(95)00050-0
%       URL: https://doi.org/10.1016/0142-0615(95)00050-0
%
%   Modifications:
%     v2 - 2020-09-30 (RDZ)
%         - Removed load at bus 60. There appears to be a typo in the paper,
%           with the load for bus 61 repeated. The original case85.m assumed
%           a typo in the bus number, and put the first instance at bus 60.
%           This version assumes it was a simple erroneous duplicate entry,
%           since it results in a power flow solution that matches the one in
%           the paper more closely.
%         - Added code for explicit conversion of loads from kW to MW and
%           branch parameters from Ohms to p.u.
%         - Bus 1 Vmin = Vmax = 1.0
%         - Gen Qmin, Qmax, Pmax magnitudes set to 10 (instead of 999)
%         - Branch flow limits disabled, i.e. set to 0 (instead of 999)
%         - Add gen cost.
%         - Change baseMVA to 1 MVA.
%
%   Plain-data copy of benchmark-grids/matpower/case85.m: the file's
%   MATLAB statements (below, as they were) are evaluated by
%   scripts/evaluate_matpower_code.py and the matrices hold the result.
%     Vbase = mpc.bus(1, BASE_KV) * 1e3;
%     Sbase = mpc.baseMVA * 1e6;
%     mpc.branch(:, [BR_R BR_X]) = mpc.branch(:, [BR_R BR_X]) / (Vbase^2 / Sbase);
%     mpc.bus(:, [PD, QD]) = mpc.bus(:, [PD, QD]) / 1e3;

%% MATPOWER Case Format : Version 2
mpc.version = '2';

mpc.baseMVA = 1;

mpc.bus = [
	1	3	0	0	0	0	1	1	0	11	1	1	1;
	2	1	0	0	0	0	1	1	0	11	1	1.1	0.9;
	3	1	0	0	0	0	1	1	0	11	1	1.1	0.9;
	4	1	0.056	0.0571314	0	0	1	1	0	11	1	1.1	0.9;
	5	1	0	0	0	0	1	1	0	11	1	1.1	0.9;
	6	1	0.03528	0.035992800000000005	0	0	1	1	0	11	1	1.1	0.9;
	7	1	0	0	0	0	1	1	0	11	1	1.1	0.9;
	8	1	0.03528	0.035992800000000005	0	0	1	1	0	11	1	1.1	0.9;
	9	1	0	0	0	0	1	1	0	11	1	1.1	0.9;
	10	1	0	0	0	0	1	1	0	11	1	1.1	0.9;
	11	1	0.056	0.0571314	0	0	1	1	0	11	1	1.1	0.9;
	12	1	0	0	0	0	1	1	0	11	1	1.1	0.9;
	13	1	0	0	0	0	1	1	0	11	1	1.1	0.9;
	14	1	0.03528	0.035992800000000005	0	0	1	1	0	11	1	1.1	0.9;
	15	1	0.03528	0.035992800000000005	0	0	1	1	0	11	1	1.1	0.9;
	16	1	0.03528	0.035992800000000005	0	0	1	1	0	11	1	1.1	0.9;
	17	1	0.112	0.1142629	0	0	1	1	0	11	1	1.1	0.9;
	18	1	0.056	0.0571314	0	0	1	1	0	11	1	1.1	0.9;
	19	1	0.056	0.0571314	0	0	1	1	0	11	1	1.1	0.9;
	20	1	0.03528	0.035992800000000005	0	0	1	1	0	11	1	1.1	0.9;
	21	1	0.03528	0.035992800000000005	0	0	1	1	0	11	1	1.1	0.9;
	22	1	0.03528	0.035992800000000005	0	0	1	1	0	11	1	1.1	0.9;
	23	1	0.056	0.0571314	0	0	1	1	0	11	1	1.1	0.9;
	24	1	0.03528	0.035992800000000005	0	0	1	1	0	11	1	1.1	0.9;
	25	1	0.03528	0.035992800000000005	0	0	1	1	0	11	1	1.1	0.9;
	26	1	0.056	0.0571314	0	0	1	1	0	11	1	1.1	0.9;
	27	1	0	0	0	0	1	1	0	11	1	1.1	0.9;
	28	1	0.056	0.0571314	0	0	1	1	0	11	1	1.1	0.9;
	29	1	0	0	0	0	1	1	0	11	1	1.1	0.9;
	30	1	0.03528	0.035992800000000005	0	0	1	1	0	11	1	1.1	0.9;
	31	1	0.03528	0.035992800000000005	0	0	1	1	0	11	1	1.1	0.9;
	32	1	0	0	0	0	1	1	0	11	1	1.1	0.9;
	33	1	0.014	0.0142829	0	0	1	1	0	11	1	1.1	0.9;
	34	1	0	0	0	0	1	1	0	11	1	1.1	0.9;
	35	1	0	0	0	0	1	1	0	11	1	1.1	0.9;
	36	1	0.03528	0.035992800000000005	0	0	1	1	0	11	1	1.1	0.9;
	37	1	0.056	0.0571314	0	0	1	1	0	11	1	1.1	0.9;
	38	1	0.056	0.0571314	0	0	1	1	0	11	1	1.1	0.9;
	39	1	0.056	0.0571314	0	0	1	1	0	11	1	1.1	0.9;
	40	1	0.03528	0.035992800000000005	0	0	1	1	0	11	1	1.1	0.9;
	41	1	0	0	0	0	1	1	0	11	1	1.1	0.9;
	42	1	0.03528	0.035992800000000005	0	0	1	1	0	11	1	1.1	0.9;
	43	1	0.03528	0.035992800000000005	0	0	1	1	0	11	1	1.1	0.9;
	44	1	0.03528	0.035992800000000005	0	0	1	1	0	11	1	1.1	0.9;
	45	1	0.03528	0.035992800000000005	0	0	1	1	0	11	1	1.1	0.9;
	46	1	0.03528	0.035992800000000005	0	0	1	1	0	11	1	1.1	0.9;
	47	1	0.014	0.0142829	0	0	1	1	0	11	1	1.1	0.9;
	48	1	0	0	0	0	1	1	0	11	1	1.1	0.9;
	49	1	0	0	0	0	1	1	0	11	1	1.1	0.9;
	50	1	0.03628	0.037013	0	0	1	1	0	11	1	1.1	0.9;
	51	1	0.056	0.0571314	0	0	1	1	0	11	1	1.1	0.9;
	52	1	0	0	0	0	1	1	0	11	1	1.1	0.9;
	53	1	0.03528	0.035992800000000005	0	0	1	1	0	11	1	1.1	0.9;
	54	1	0.056	0.0571314	0	0	1	1	0	11	1	1.1	0.9;
	55	1	0.056	0.0571314	0	0	1	1	0	11	1	1.1	0.9;
	56	1	0.014	0.0142829	0	0	1	1	0	11	1	1.1	0.9;
	57	1	0.056	0.0571314	0	0	1	1	0	11	1	1.1	0.9;
	58	1	0	0	0	0	1	1	0	11	1	1.1	0.9;
	59	1	0.056	0.0571314	0	0	1	1	0	11	1	1.1	0.9;
	60	1	0	0	0	0	1	1	0	11	1	1.1	0.9;
	61	1	0.056	0.0571314	0	0	1	1	0	11	1	1.1	0.9;
	62	1	0.056	0.0571314	0	0	1	1	0	11	1	1.1	0.9;
	63	1	0.014	0.0142829	0	0	1	1	0	11	1	1.1	0.9;
	64	1	0	0	0	0	1	1	0	11	1	1.1	0.9;
	65	1	0	0	0	0	1	1	0	11	1	1.1	0.9;
	66	1	0.056	0.0571314	0	0	1	1	0	11	1	1.1	0.9;
	67	1	0	0	0	0	1	1	0	11	1	1.1	0.9;
	68	1	0	0	0	0	1	1	0	11	1	1.1	0.9;
	69	1	0.056	0.0571314	0	0	1	1	0	11	1	1.1	0.9;
	70	1	0	0	0	0	1	1	0	11	1	1.1	0.9;
	71	1	0.03528	0.035992800000000005	0	0	1	1	0	11	1	1.1	0.9;
	72	1	0.056	0.0571314	0	0	1	1	0	11	1	1.1	0.9;
	73	1	0	0	0	0	1	1	0	11	1	1.1	0.9;
	74	1	0.056	0.0571314	0	0	1	1	0	11	1	1.1	0.9;
	75	1	0.03528	0.035992800000000005	0	0	1	1	0	11	1	1.1	0.9;
	76	1	0.056	0.0571314	0	0	1	1	0	11	1	1.1	0.9;
	77	1	0.014	0.0142829	0	0	1	1	0	11	1	1.1	0.9;
	78	1	0.056	0.0571314	0	0	1	1	0	11	1	1.1	0.9;
	79	1	0.03528	0.035992800000000005	0	0	1	1	0	11	1	1.1	0.9;
	80	1	0.056	0.0571314	0	0	1	1	0	11	1	1.1	0.9;
	81	1	0	0	0	0	1	1	0	11	1	1.1	0.9;
	82	1	0.056	0.0571314	0	0	1	1	0	11	1	1.1	0.9;
	83	1	0.03528	0.035992800000000005	0	0	1	1	0	11	1	1.1	0.9;
	84	1	0.014	0.0142829	0	0	1	1	0	11	1	1.1	0.9;
	85	1	0.03528	0.035992800000000005	0	0	1	1	0	11	1	1.1	0.9;
];

mpc.gen = [
	1	0	0	10	-10	1	100	1	10	0	0	0	0	0	0	0	0	0	0	0	0;
];

mpc.branch = [
	1	2	0.0008925619834710744	0.0006198347107438017	0	0	0	0	0	0	1	-360	360;
	2	3	0.001347107438016529	0.0009256198347107438	0	0	0	0	0	0	1	-360	360;
	3	4	0.001793388429752066	0.001231404958677686	0	0	0	0	0	0	1	-360	360;
	4	5	0.0008925619834710744	0.0006115702479338843	0	0	0	0	0	0	1	-360	360;
	5	6	0.00359504132231405	0.002462809917355372	0	0	0	0	0	0	1	-360	360;
	6	7	0.0022479338842975208	0.001537190082644628	0	0	0	0	0	0	1	-360	360;
	7	8	0.009892561983471075	0.006776859504132231	0	0	0	0	0	0	1	-360	360;
	8	9	0.0008925619834710744	0.0006115702479338843	0	0	0	0	0	0	1	-360	360;
	9	10	0.004942148760330578	0.0033884297520661156	0	0	0	0	0	0	1	-360	360;
	10	11	0.0044958677685950415	0.0030826446280991736	0	0	0	0	0	0	1	-360	360;
	11	12	0.0044958677685950415	0.0030826446280991736	0	0	0	0	0	0	1	-360	360;
	12	13	0.004942148760330578	0.0033884297520661156	0	0	0	0	0	0	1	-360	360;
	13	14	0.0022479338842975208	0.001537190082644628	0	0	0	0	0	0	1	-360	360;
	14	15	0.002694214876033058	0.0018429752066115703	0	0	0	0	0	0	1	-360	360;
	2	16	0.006016528925619834	0.0024958677685950415	0	0	0	0	0	0	1	-360	360;
	3	17	0.003760330578512397	0.0015619834710743803	0	0	0	0	0	0	1	-360	360;
	5	18	0.006776859504132231	0.002809917355371901	0	0	0	0	0	0	1	-360	360;
	18	19	0.0052644628099173555	0.002181818181818182	0	0	0	0	0	0	1	-360	360;
	19	20	0.003760330578512397	0.0015619834710743803	0	0	0	0	0	0	1	-360	360;
	20	21	0.006768595041322314	0.002809917355371901	0	0	0	0	0	0	1	-360	360;
	21	22	0.012793388429752067	0.005305785123966942	0	0	0	0	0	0	1	-360	360;
	19	23	0.0015041322314049586	0.0006198347107438017	0	0	0	0	0	0	1	-360	360;
	7	24	0.007520661157024794	0.0031239669421487606	0	0	0	0	0	0	1	-360	360;
	8	25	0.003760330578512397	0.0015619834710743803	0	0	0	0	0	0	1	-360	360;
	25	26	0.003008264462809917	0.0012479338842975207	0	0	0	0	0	0	1	-360	360;
	26	27	0.004512396694214877	0.0018677685950413223	0	0	0	0	0	0	1	-360	360;
	27	28	0.0022561983471074383	0.0009338842975206612	0	0	0	0	0	0	1	-360	360;
	28	29	0.004512396694214877	0.0018677685950413223	0	0	0	0	0	0	1	-360	360;
	29	30	0.004512396694214877	0.0018677685950413223	0	0	0	0	0	0	1	-360	360;
	30	31	0.0022561983471074383	0.0009338842975206612	0	0	0	0	0	0	1	-360	360;
	31	32	0.0015041322314049586	0.0006198347107438017	0	0	0	0	0	0	1	-360	360;
	32	33	0.0015041322314049586	0.0006198347107438017	0	0	0	0	0	0	1	-360	360;
	33	34	0.006768595041322314	0.002809917355371901	0	0	0	0	0	0	1	-360	360;
	34	35	0.0052644628099173555	0.002181818181818182	0	0	0	0	0	0	1	-360	360;
	35	36	0.0015041322314049586	0.0006198347107438017	0	0	0	0	0	0	1	-360	360;
	26	37	0.003008264462809917	0.0012479338842975207	0	0	0	0	0	0	1	-360	360;
	27	38	0.00828099173553719	0.00343801652892562	0	0	0	0	0	0	1	-360	360;
	29	39	0.004512396694214877	0.0018677685950413223	0	0	0	0	0	0	1	-360	360;
	32	40	0.003760330578512397	0.0015619834710743803	0	0	0	0	0	0	1	-360	360;
	40	41	0.00828099173553719	0.00343801652892562	0	0	0	0	0	0	1	-360	360;
	41	42	0.0022561983471074383	0.0009338842975206612	0	0	0	0	0	0	1	-360	360;
	41	43	0.003760330578512397	0.0015619834710743803	0	0	0	0	0	0	1	-360	360;
	34	44	0.00828099173553719	0.00343801652892562	0	0	0	0	0	0	1	-360	360;
	44	45	0.007528925619834711	0.0031239669421487606	0	0	0	0	0	0	1	-360	360;
	45	46	0.007528925619834711	0.0031239669421487606	0	0	0	0	0	0	1	-360	360;
	46	47	0.004512396694214877	0.0018677685950413223	0	0	0	0	0	0	1	-360	360;
	35	48	0.0052644628099173555	0.002181818181818182	0	0	0	0	0	0	1	-360	360;
	48	49	0.0015041322314049586	0.0006198347107438017	0	0	0	0	0	0	1	-360	360;
	49	50	0.003008264462809917	0.0012479338842975207	0	0	0	0	0	0	1	-360	360;
	50	51	0.003760330578512397	0.0015619834710743803	0	0	0	0	0	0	1	-360	360;
	48	52	0.011289256198347109	0.00468595041322314	0	0	0	0	0	0	1	-360	360;
	52	53	0.003760330578512397	0.0015619834710743803	0	0	0	0	0	0	1	-360	360;
	53	54	0.004512396694214877	0.0018677685950413223	0	0	0	0	0	0	1	-360	360;
	52	55	0.004512396694214877	0.0018677685950413223	0	0	0	0	0	0	1	-360	360;
	49	56	0.004512396694214877	0.0018677685950413223	0	0	0	0	0	0	1	-360	360;
	9	57	0.0022561983471074383	0.0009338842975206612	0	0	0	0	0	0	1	-360	360;
	57	58	0.006768595041322314	0.002809917355371901	0	0	0	0	0	0	1	-360	360;
	58	59	0.0015041322314049586	0.0006198347107438017	0	0	0	0	0	0	1	-360	360;
	58	60	0.004512396694214877	0.0018677685950413223	0	0	0	0	0	0	1	-360	360;
	60	61	0.006016528925619834	0.0024958677685950415	0	0	0	0	0	0	1	-360	360;
	61	62	0.00828099173553719	0.003429752066115702	0	0	0	0	0	0	1	-360	360;
	60	63	0.0015041322314049586	0.0006198347107438017	0	0	0	0	0	0	1	-360	360;
	63	64	0.006016528925619834	0.0024958677685950415	0	0	0	0	0	0	1	-360	360;
	64	65	0.0015041322314049586	0.0006198347107438017	0	0	0	0	0	0	1	-360	360;
	65	66	0.0015041322314049586	0.0006198347107438017	0	0	0	0	0	0	1	-360	360;
	64	67	0.003760330578512397	0.0015619834710743803	0	0	0	0	0	0	1	-360	360;
	67	68	0.007520661157024794	0.0031239669421487606	0	0	0	0	0	0	1	-360	360;
	68	69	0.009024793388429753	0.0037438016528925622	0	0	0	0	0	0	1	-360	360;
	69	70	0.003760330578512397	0.0015619834710743803	0	0	0	0	0	0	1	-360	360;
	70	71	0.004512396694214877	0.0018677685950413223	0	0	0	0	0	0	1	-360	360;
	67	72	0.0015041322314049586	0.0006198347107438017	0	0	0	0	0	0	1	-360	360;
	68	73	0.00978512396694215	0.004057851239669422	0	0	0	0	0	0	1	-360	360;
	73	74	0.0022561983471074383	0.0009338842975206612	0	0	0	0	0	0	1	-360	360;
	73	75	0.00828099173553719	0.00343801652892562	0	0	0	0	0	0	1	-360	360;
	70	76	0.004512396694214877	0.0018677685950413223	0	0	0	0	0	0	1	-360	360;
	65	77	0.0007520661157024793	0.00030578512396694217	0	0	0	0	0	0	1	-360	360;
	10	78	0.0052644628099173555	0.002181818181818182	0	0	0	0	0	0	1	-360	360;
	67	79	0.004512396694214877	0.0018677685950413223	0	0	0	0	0	0	1	-360	360;
	12	80	0.006016528925619834	0.0024958677685950415	0	0	0	0	0	0	1	-360	360;
	80	81	0.003008264462809917	0.0012479338842975207	0	0	0	0	0	0	1	-360	360;
	81	82	0.0007520661157024793	0.00030578512396694217	0	0	0	0	0	0	1	-360	360;
	81	83	0.009024793388429753	0.0037438016528925622	0	0	0	0	0	0	1	-360	360;
	83	84	0.00828099173553719	0.00343801652892562	0	0	0	0	0	0	1	-360	360;
	13	85	0.006768595041322314	0.002809917355371901	0	0	0	0	0	0	1	-360	360;
];

mpc.gencost = [
	2	0	0	3	0	20	0;
];
